24
1  6
N -1.5205751338  1.7743998983 -1.2688899726
C -2.6100832069  1.2470496645 -0.3995786613
P -1.9865149385 -0.19550627  0.5223727095
O -1.0785965459  0.2027342757  1.6346420362
O -1.3301031779 -1.0323929158 -0.5713650926
O -3.300464265 -0.8967553001  1.0237276124
Mn -0.1127629002  0.1297191043 -1.6488129744
H -3.3240208909 -1.0642970901  1.971844722
H -0.9356029627  2.4059176876 -0.7233880495
H -3.0046568725  2.0144497519  0.2691254952
H -3.4261015415  0.8956361606 -1.0335350337
H -1.9157884197  2.3348654619 -2.0166286637
N  1.2909858362 -1.5928335634 -1.7758361689
C  2.4463471277 -1.3690180448 -0.8725458177
P  2.078945796 -0.0343567354  0.2982712045
O  1.3241479709 -0.545746443  1.5304775875
O  1.3239186186  0.9987254681 -0.4901306125
O  3.5064007445  0.4022957026  0.7504917657
H  3.598313965  0.7244703861  1.6543581086
H  0.6771592986 -2.3022503314 -1.3779262546
H  2.7564520592 -2.278607102 -0.3540812992
H  3.2968865852 -1.0177565902 -1.4607061095
H  1.6175542145 -1.9629751394 -2.6618749891
H  0.3340498147 -0.2489357494  1.6397944181


